simulator lang=spectre
global 0 gnd!
include "/home/users/vinagres/projet_cmos065_58/corners.scs"
V1 (IN_000 0) vsource file="./INPUT_000.txt"
V2 (IN_001 0) vsource file="./INPUT_001.txt"
V3 (IN_002 0) vsource file="./INPUT_002.txt"
V4 (IN_003 0) vsource file="./INPUT_003.txt"
V5 (IN_004 0) vsource file="./INPUT_004.txt"
V6 (IN_005 0) vsource file="./INPUT_005.txt"
V7 (IN_006 0) vsource file="./INPUT_006.txt"
V8 (IN_007 0) vsource file="./INPUT_007.txt"
V9 (IN_008 0) vsource file="./INPUT_008.txt"
V10 (IN_009 0) vsource file="./INPUT_009.txt"
V11 (IN_010 0) vsource file="./INPUT_010.txt"
V12 (IN_011 0) vsource file="./INPUT_011.txt"
V13 (IN_012 0) vsource file="./INPUT_012.txt"
V14 (IN_013 0) vsource file="./INPUT_013.txt"
V15 (IN_014 0) vsource file="./INPUT_014.txt"
V16 (IN_015 0) vsource file="./INPUT_015.txt"
V17 (IN_016 0) vsource file="./INPUT_016.txt"
V18 (IN_017 0) vsource file="./INPUT_017.txt"
V19 (IN_018 0) vsource file="./INPUT_018.txt"
V20 (IN_019 0) vsource file="./INPUT_019.txt"
M1 (IN_000 COL_000) resistor r=492.4420005665682
M2 (IN_000 COL_001) resistor r=464.7238838323265
M3 (IN_000 COL_002) resistor r=693.9466459685577
M4 (IN_000 COL_003) resistor r=313.51021991264406
M5 (IN_000 COL_004) resistor r=667.2062853767832
M6 (IN_000 COL_005) resistor r=28.809002326917966
M7 (IN_000 COL_006) resistor r=339.56088708482235
M8 (IN_000 COL_007) resistor r=259.181022111308
M9 (IN_000 COL_008) resistor r=204.23019554791367
M10 (IN_000 COL_009) resistor r=582.4989143043699
M11 (IN_001 COL_000) resistor r=863.8990268250393
M12 (IN_001 COL_001) resistor r=486.09443119498144
M13 (IN_001 COL_002) resistor r=441.8941856046362
M14 (IN_001 COL_003) resistor r=894.3436911651071
M15 (IN_001 COL_004) resistor r=652.4240381210441
M16 (IN_001 COL_005) resistor r=628.9597586779635
M17 (IN_001 COL_006) resistor r=9.608074175117775
M18 (IN_001 COL_007) resistor r=277.8475646096462
M19 (IN_001 COL_008) resistor r=452.96214948409164
M20 (IN_001 COL_009) resistor r=599.8425011337621
M21 (IN_002 COL_000) resistor r=200.51155990922186
M22 (IN_002 COL_001) resistor r=664.434923256296
M23 (IN_002 COL_002) resistor r=191.20459402882452
M24 (IN_002 COL_003) resistor r=336.91404621611963
M25 (IN_002 COL_004) resistor r=745.2732228912988
M26 (IN_002 COL_005) resistor r=992.1948493868297
M27 (IN_002 COL_006) resistor r=991.4767604420973
M28 (IN_002 COL_007) resistor r=403.9252616709329
M29 (IN_002 COL_008) resistor r=3.278909189293522
M30 (IN_002 COL_009) resistor r=361.98170980235676
M31 (IN_003 COL_000) resistor r=458.708653595603
M32 (IN_003 COL_001) resistor r=193.6853751799561
M33 (IN_003 COL_002) resistor r=964.029795891466
M34 (IN_003 COL_003) resistor r=864.123952292393
M35 (IN_003 COL_004) resistor r=243.89187221504903
M36 (IN_003 COL_005) resistor r=448.22458391763473
M37 (IN_003 COL_006) resistor r=139.59368898499702
M38 (IN_003 COL_007) resistor r=322.6501202420458
M39 (IN_003 COL_008) resistor r=643.4593658519746
M40 (IN_003 COL_009) resistor r=957.1960613745173
M41 (IN_004 COL_000) resistor r=129.31600751690476
M42 (IN_004 COL_001) resistor r=447.2924733204835
M43 (IN_004 COL_002) resistor r=130.92633928639341
M44 (IN_004 COL_003) resistor r=241.19317194176648
M45 (IN_004 COL_004) resistor r=30.92660037781092
M46 (IN_004 COL_005) resistor r=104.95295382093917
M47 (IN_004 COL_006) resistor r=691.2877172084925
M48 (IN_004 COL_007) resistor r=422.53495904441684
M49 (IN_004 COL_008) resistor r=31.931827151235993
M50 (IN_004 COL_009) resistor r=58.46605325558851
M51 (IN_005 COL_000) resistor r=85.52122346224056
M52 (IN_005 COL_001) resistor r=605.1748505821289
M53 (IN_005 COL_002) resistor r=933.5213111805043
M54 (IN_005 COL_003) resistor r=789.5533007417704
M55 (IN_005 COL_004) resistor r=662.5380416863692
M56 (IN_005 COL_005) resistor r=462.1401901127532
M57 (IN_005 COL_006) resistor r=371.11183397766
M58 (IN_005 COL_007) resistor r=122.00628584465034
M59 (IN_005 COL_008) resistor r=549.0437442257063
M60 (IN_005 COL_009) resistor r=661.8631124976117
M61 (IN_006 COL_000) resistor r=180.94927787772176
M62 (IN_006 COL_001) resistor r=300.654077855413
M63 (IN_006 COL_002) resistor r=680.7036517696937
M64 (IN_006 COL_003) resistor r=194.32960823357504
M65 (IN_006 COL_004) resistor r=488.8806075030052
M66 (IN_006 COL_005) resistor r=232.81649717362473
M67 (IN_006 COL_006) resistor r=581.7696221287015
M68 (IN_006 COL_007) resistor r=436.2329990271466
M69 (IN_006 COL_008) resistor r=433.9381667719487
M70 (IN_006 COL_009) resistor r=679.0148810826929
M71 (IN_007 COL_000) resistor r=832.9926856868609
M72 (IN_007 COL_001) resistor r=834.593540843029
M73 (IN_007 COL_002) resistor r=130.96112892438006
M74 (IN_007 COL_003) resistor r=865.4566411893478
M75 (IN_007 COL_004) resistor r=707.3043204018913
M76 (IN_007 COL_005) resistor r=118.2652032019793
M77 (IN_007 COL_006) resistor r=82.85461244170811
M78 (IN_007 COL_007) resistor r=399.3487111400805
M79 (IN_007 COL_008) resistor r=336.91160407802613
M80 (IN_007 COL_009) resistor r=424.7643614237111
M81 (IN_008 COL_000) resistor r=699.2240716804491
M82 (IN_008 COL_001) resistor r=68.63743928274934
M83 (IN_008 COL_002) resistor r=595.9163717665808
M84 (IN_008 COL_003) resistor r=244.49586356304366
M85 (IN_008 COL_004) resistor r=633.9213820559747
M86 (IN_008 COL_005) resistor r=932.688616179944
M87 (IN_008 COL_006) resistor r=600.6357332046263
M88 (IN_008 COL_007) resistor r=136.85780277009317
M89 (IN_008 COL_008) resistor r=173.6822541654267
M90 (IN_008 COL_009) resistor r=953.8544455194711
M91 (IN_009 COL_000) resistor r=700.1109047642486
M92 (IN_009 COL_001) resistor r=818.1329024865383
M93 (IN_009 COL_002) resistor r=355.88655461123517
M94 (IN_009 COL_003) resistor r=851.7706786868522
M95 (IN_009 COL_004) resistor r=160.89739514653712
M96 (IN_009 COL_005) resistor r=710.5709575123724
M97 (IN_009 COL_006) resistor r=835.2041239051011
M98 (IN_009 COL_007) resistor r=65.43526002404087
M99 (IN_009 COL_008) resistor r=611.9841296763102
M100 (IN_009 COL_009) resistor r=106.44248464728545
M101 (IN_010 COL_000) resistor r=658.0602980038482
M102 (IN_010 COL_001) resistor r=557.516284646947
M103 (IN_010 COL_002) resistor r=633.9791712263769
M104 (IN_010 COL_003) resistor r=636.1930855520598
M105 (IN_010 COL_004) resistor r=612.2701421298085
M106 (IN_010 COL_005) resistor r=153.90462222279976
M107 (IN_010 COL_006) resistor r=696.2581910245991
M108 (IN_010 COL_007) resistor r=656.3870426715159
M109 (IN_010 COL_008) resistor r=238.59912846888443
M110 (IN_010 COL_009) resistor r=77.75874029437024
M111 (IN_011 COL_000) resistor r=877.0205101523638
M112 (IN_011 COL_001) resistor r=489.5873118932501
M113 (IN_011 COL_002) resistor r=107.29385414737769
M114 (IN_011 COL_003) resistor r=721.1066968821144
M115 (IN_011 COL_004) resistor r=767.4851532195822
M116 (IN_011 COL_005) resistor r=547.3884598638648
M117 (IN_011 COL_006) resistor r=909.6687423206052
M118 (IN_011 COL_007) resistor r=358.2832714616586
M119 (IN_011 COL_008) resistor r=713.0170141770175
M120 (IN_011 COL_009) resistor r=427.9998023575371
M121 (IN_012 COL_000) resistor r=465.4435061134982
M122 (IN_012 COL_001) resistor r=320.806619168273
M123 (IN_012 COL_002) resistor r=950.0292701919492
M124 (IN_012 COL_003) resistor r=58.49827771221605
M125 (IN_012 COL_004) resistor r=97.9954043645701
M126 (IN_012 COL_005) resistor r=954.2003870116826
M127 (IN_012 COL_006) resistor r=975.0113953481733
M128 (IN_012 COL_007) resistor r=829.9465231100546
M129 (IN_012 COL_008) resistor r=284.17259304578704
M130 (IN_012 COL_009) resistor r=661.0502302902853
M131 (IN_013 COL_000) resistor r=299.7768028727772
M132 (IN_013 COL_001) resistor r=549.2721790857788
M133 (IN_013 COL_002) resistor r=927.3365270922592
M134 (IN_013 COL_003) resistor r=986.1896683998959
M135 (IN_013 COL_004) resistor r=320.0850668705756
M136 (IN_013 COL_005) resistor r=618.548406793816
M137 (IN_013 COL_006) resistor r=335.3643271982656
M138 (IN_013 COL_007) resistor r=469.2541722730359
M139 (IN_013 COL_008) resistor r=931.7924930502082
M140 (IN_013 COL_009) resistor r=980.2620462545858
M141 (IN_014 COL_000) resistor r=40.876669856804384
M142 (IN_014 COL_001) resistor r=517.0925531644798
M143 (IN_014 COL_002) resistor r=403.66339265496055
M144 (IN_014 COL_003) resistor r=425.8876045180213
M145 (IN_014 COL_004) resistor r=46.81067901073288
M146 (IN_014 COL_005) resistor r=511.16846362379164
M147 (IN_014 COL_006) resistor r=420.2151782829917
M148 (IN_014 COL_007) resistor r=269.6801848063275
M149 (IN_014 COL_008) resistor r=582.4939993549209
M150 (IN_014 COL_009) resistor r=857.5838616392281
M151 (IN_015 COL_000) resistor r=116.17716419331381
M152 (IN_015 COL_001) resistor r=701.8284353257014
M153 (IN_015 COL_002) resistor r=330.63727736726
M154 (IN_015 COL_003) resistor r=329.81453702652954
M155 (IN_015 COL_004) resistor r=520.3010568492942
M156 (IN_015 COL_005) resistor r=488.2930352574312
M157 (IN_015 COL_006) resistor r=681.6732808423307
M158 (IN_015 COL_007) resistor r=57.711136375218516
M159 (IN_015 COL_008) resistor r=561.9405977589827
M160 (IN_015 COL_009) resistor r=749.9589642441973
M161 (IN_016 COL_000) resistor r=853.7763861911947
M162 (IN_016 COL_001) resistor r=931.2972664335972
M163 (IN_016 COL_002) resistor r=988.229942105884
M164 (IN_016 COL_003) resistor r=165.31737338657447
M165 (IN_016 COL_004) resistor r=890.2457171747475
M166 (IN_016 COL_005) resistor r=367.29081585223054
M167 (IN_016 COL_006) resistor r=225.7107156929997
M168 (IN_016 COL_007) resistor r=647.7208305220786
M169 (IN_016 COL_008) resistor r=568.7794729191316
M170 (IN_016 COL_009) resistor r=883.2431269968481
M171 (IN_017 COL_000) resistor r=876.7663581559009
M172 (IN_017 COL_001) resistor r=538.101559582023
M173 (IN_017 COL_002) resistor r=996.3859739390352
M174 (IN_017 COL_003) resistor r=224.7534863249039
M175 (IN_017 COL_004) resistor r=388.5933603448609
M176 (IN_017 COL_005) resistor r=276.83455503432674
M177 (IN_017 COL_006) resistor r=317.4671111551629
M178 (IN_017 COL_007) resistor r=690.5507386498481
M179 (IN_017 COL_008) resistor r=601.5204631020753
M180 (IN_017 COL_009) resistor r=364.5193844695352
M181 (IN_018 COL_000) resistor r=527.4346015747011
M182 (IN_018 COL_001) resistor r=439.3732702683478
M183 (IN_018 COL_002) resistor r=17.1875582773946
M184 (IN_018 COL_003) resistor r=70.83445909863117
M185 (IN_018 COL_004) resistor r=678.0576387059664
M186 (IN_018 COL_005) resistor r=744.4950402984668
M187 (IN_018 COL_006) resistor r=839.031772239349
M188 (IN_018 COL_007) resistor r=69.25869870416123
M189 (IN_018 COL_008) resistor r=818.2646733031916
M190 (IN_018 COL_009) resistor r=775.854362270153
M191 (IN_019 COL_000) resistor r=407.3965028040234
M192 (IN_019 COL_001) resistor r=557.6407668655038
M193 (IN_019 COL_002) resistor r=67.22318870113564
M194 (IN_019 COL_003) resistor r=540.4606172804589
M195 (IN_019 COL_004) resistor r=568.6010281524326
M196 (IN_019 COL_005) resistor r=342.46355042475506
M197 (IN_019 COL_006) resistor r=418.792122346066
M198 (IN_019 COL_007) resistor r=526.2967646955886
M199 (IN_019 COL_008) resistor r=753.4087366057444
M200 (IN_019 COL_009) resistor r=50.07102551985032
I1 (COL_000 ADC_000) ADC
I2 (COL_001 ADC_001) ADC
I3 (COL_002 ADC_002) ADC
I4 (COL_003 ADC_003) ADC
I5 (COL_004 ADC_004) ADC
I6 (COL_005 ADC_005) ADC
I7 (COL_006 ADC_006) ADC
I8 (COL_007 ADC_007) ADC
I9 (COL_008 ADC_008) ADC
I10 (COL_009 ADC_009) ADC
