simulator lang=spectre
global 0 gnd!
include "/home/users/vinagres/projet_cmos065_58/corners.scs"
V1 (IN_000 0) vsource dc=1
V2 (IN_001 0) vsource dc=1
V3 (IN_002 0) vsource dc=1
V4 (IN_003 0) vsource dc=1
V5 (IN_004 0) vsource dc=1
V6 (IN_005 0) vsource dc=1
V7 (IN_006 0) vsource dc=1
V8 (IN_007 0) vsource dc=1
V9 (IN_008 0) vsource dc=1
V10 (IN_009 0) vsource dc=1
M1 (IN_000 COL_000) resistor r=552874.9534334996
M2 (IN_000 COL_001) resistor r=193407.2705145696
M3 (IN_000 COL_002) resistor r=912909.4494898337
M4 (IN_000 COL_003) resistor r=500409.7210818061
M5 (IN_000 COL_004) resistor r=769193.9602179658
M6 (IN_000 COL_005) resistor r=61371.526728944285
M7 (IN_000 COL_006) resistor r=852382.3413321384
M8 (IN_000 COL_007) resistor r=963626.9451510562
M9 (IN_000 COL_008) resistor r=941307.8385723663
M10 (IN_000 COL_009) resistor r=218461.23019932886
M11 (IN_001 COL_000) resistor r=389000.8963026095
M12 (IN_001 COL_001) resistor r=930684.064538585
M13 (IN_001 COL_002) resistor r=958818.641466861
M14 (IN_001 COL_003) resistor r=24963.96776130506
M15 (IN_001 COL_004) resistor r=99241.98187009324
M16 (IN_001 COL_005) resistor r=239014.39647304555
M17 (IN_001 COL_006) resistor r=808976.2345077576
M18 (IN_001 COL_007) resistor r=525757.4235540063
M19 (IN_001 COL_008) resistor r=745898.3954610183
M20 (IN_001 COL_009) resistor r=575864.9415338892
M21 (IN_002 COL_000) resistor r=421153.4472045072
M22 (IN_002 COL_001) resistor r=393670.8052573163
M23 (IN_002 COL_002) resistor r=498150.05301643
M24 (IN_002 COL_003) resistor r=878246.1587648699
M25 (IN_002 COL_004) resistor r=688883.0730695894
M26 (IN_002 COL_005) resistor r=546124.2320786939
M27 (IN_002 COL_006) resistor r=132297.9149777984
M28 (IN_002 COL_007) resistor r=402626.240429425
M29 (IN_002 COL_008) resistor r=353367.2344660715
M30 (IN_002 COL_009) resistor r=869586.6201973859
M31 (IN_003 COL_000) resistor r=647492.1291992484
M32 (IN_003 COL_001) resistor r=213495.41299169345
M33 (IN_003 COL_002) resistor r=342392.4614779278
M34 (IN_003 COL_003) resistor r=860272.3291659581
M35 (IN_003 COL_004) resistor r=612896.2893877889
M36 (IN_003 COL_005) resistor r=531901.9887769844
M37 (IN_003 COL_006) resistor r=584181.8568902073
M38 (IN_003 COL_007) resistor r=869709.4528908428
M39 (IN_003 COL_008) resistor r=809992.6216333891
M40 (IN_003 COL_009) resistor r=821286.3941532099
M41 (IN_004 COL_000) resistor r=426259.16950111423
M42 (IN_004 COL_001) resistor r=476097.6485444068
M43 (IN_004 COL_002) resistor r=143992.35303485914
M44 (IN_004 COL_003) resistor r=215704.24286071898
M45 (IN_004 COL_004) resistor r=643161.3422775604
M46 (IN_004 COL_005) resistor r=56647.32674544712
M47 (IN_004 COL_006) resistor r=168166.06217629818
M48 (IN_004 COL_007) resistor r=873340.1882864475
M49 (IN_004 COL_008) resistor r=197861.54771897878
M50 (IN_004 COL_009) resistor r=215068.42101010296
M51 (IN_005 COL_000) resistor r=669880.269734395
M52 (IN_005 COL_001) resistor r=115058.00927623572
M53 (IN_005 COL_002) resistor r=225430.9602595976
M54 (IN_005 COL_003) resistor r=803251.1666282474
M55 (IN_005 COL_004) resistor r=357935.0919484161
M56 (IN_005 COL_005) resistor r=745019.2430086591
M57 (IN_005 COL_006) resistor r=105758.87193735463
M58 (IN_005 COL_007) resistor r=264682.29210374004
M59 (IN_005 COL_008) resistor r=387484.21748126793
M60 (IN_005 COL_009) resistor r=656347.0612174019
M61 (IN_006 COL_000) resistor r=148343.3857852769
M62 (IN_006 COL_001) resistor r=757701.8531597741
M63 (IN_006 COL_002) resistor r=810210.7151912855
M64 (IN_006 COL_003) resistor r=446989.8872961307
M65 (IN_006 COL_004) resistor r=187676.98335327217
M66 (IN_006 COL_005) resistor r=582477.9008829304
M67 (IN_006 COL_006) resistor r=117034.1645781126
M68 (IN_006 COL_007) resistor r=138245.345169525
M69 (IN_006 COL_008) resistor r=458489.10515433206
M70 (IN_006 COL_009) resistor r=676087.1696176695
M71 (IN_007 COL_000) resistor r=426286.6653736865
M72 (IN_007 COL_001) resistor r=927558.4873398849
M73 (IN_007 COL_002) resistor r=597415.8990952829
M74 (IN_007 COL_003) resistor r=569339.4332717595
M75 (IN_007 COL_004) resistor r=867013.2936771846
M76 (IN_007 COL_005) resistor r=652033.4414006597
M77 (IN_007 COL_006) resistor r=408400.12090960727
M78 (IN_007 COL_007) resistor r=584310.4912786823
M79 (IN_007 COL_008) resistor r=241165.58907868792
M80 (IN_007 COL_009) resistor r=319666.10062902304
M81 (IN_008 COL_000) resistor r=501634.1059570288
M82 (IN_008 COL_001) resistor r=573787.5089087434
M83 (IN_008 COL_002) resistor r=496665.22199613345
M84 (IN_008 COL_003) resistor r=960151.1139410159
M85 (IN_008 COL_004) resistor r=938661.3150250445
M86 (IN_008 COL_005) resistor r=246564.76260538367
M87 (IN_008 COL_006) resistor r=507836.12481863535
M88 (IN_008 COL_007) resistor r=929396.659566989
M89 (IN_008 COL_008) resistor r=618405.5252097745
M90 (IN_008 COL_009) resistor r=104933.33279755627
M91 (IN_009 COL_000) resistor r=843644.9743696963
M92 (IN_009 COL_001) resistor r=495578.86329857
M93 (IN_009 COL_002) resistor r=886732.6011972411
M94 (IN_009 COL_003) resistor r=925145.0275603425
M95 (IN_009 COL_004) resistor r=503576.355508747
M96 (IN_009 COL_005) resistor r=59346.72893538781
M97 (IN_009 COL_006) resistor r=111591.96981983587
M98 (IN_009 COL_007) resistor r=411315.27866138757
M99 (IN_009 COL_008) resistor r=996395.3593218067
M100 (IN_009 COL_009) resistor r=10439.40684360896
