simulator lang=spectre
global 0 gnd!
subckt mnist_grid COL_000 COL_001 COL_002 COL_003 COL_004 COL_005 COL_006 COL_007 COL_008 COL_009 COL_010 COL_011 COL_012 COL_013 COL_014 COL_015 COL_016 COL_017 COL_018 COL_019 COL_020 COL_021 COL_022 COL_023 COL_024 COL_025 COL_026 COL_027 COL_028 COL_029 COL_030 COL_031 COL_032 COL_033 COL_034 COL_035 COL_036 COL_037 COL_038 COL_039 COL_040 COL_041 COL_042 COL_043 COL_044 COL_045 COL_046 COL_047 COL_048 COL_049 COL_050 COL_051 COL_052 COL_053 COL_054 COL_055 COL_056 COL_057 COL_058 COL_059 COL_060 COL_061 COL_062 COL_063 COL_064 COL_065 COL_066 COL_067 COL_068 COL_069 COL_070 COL_071 COL_072 COL_073 COL_074 COL_075 COL_076 COL_077 COL_078 COL_079 COL_080 COL_081 COL_082 COL_083 COL_084 COL_085 COL_086 COL_087 COL_088 COL_089 COL_090 COL_091 COL_092 COL_093 COL_094 COL_095 COL_096 COL_097 COL_098 COL_099 COLN_000 COLN_001 COLN_002 COLN_003 COLN_004 COLN_005 COLN_006 COLN_007 COLN_008 COLN_009 COLN_010 COLN_011 COLN_012 COLN_013 COLN_014 COLN_015 COLN_016 COLN_017 COLN_018 COLN_019 COLN_020 COLN_021 COLN_022 COLN_023 COLN_024 COLN_025 COLN_026 COLN_027 COLN_028 COLN_029 COLN_030 COLN_031 COLN_032 COLN_033 COLN_034 COLN_035 COLN_036 COLN_037 COLN_038 COLN_039 COLN_040 COLN_041 COLN_042 COLN_043 COLN_044 COLN_045 COLN_046 COLN_047 COLN_048 COLN_049 COLN_050 COLN_051 COLN_052 COLN_053 COLN_054 COLN_055 COLN_056 COLN_057 COLN_058 COLN_059 COLN_060 COLN_061 COLN_062 COLN_063 COLN_064 COLN_065 COLN_066 COLN_067 COLN_068 COLN_069 COLN_070 COLN_071 COLN_072 COLN_073 COLN_074 COLN_075 COLN_076 COLN_077 COLN_078 COLN_079 COLN_080 COLN_081 COLN_082 COLN_083 COLN_084 COLN_085 COLN_086 COLN_087 COLN_088 COLN_089 COLN_090 COLN_091 COLN_092 COLN_093 COLN_094 COLN_095 COLN_096 COLN_097 COLN_098 COLN_099
V1 (0 0) vsource dc=-3.0
V2 (1 0) vsource dc=-3.0
V3 (2 0) vsource dc=-3.0
V4 (3 0) vsource dc=-3.0
V5 (4 0) vsource dc=-3.0
V6 (5 0) vsource dc=-3.0
V7 (6 0) vsource dc=-3.0
V8 (7 0) vsource dc=-3.0
V9 (8 0) vsource dc=-3.0
V10 (9 0) vsource dc=-3.0
V11 (10 0) vsource dc=-3.0
V12 (11 0) vsource dc=-3.0
V13 (12 0) vsource dc=-3.0
V14 (13 0) vsource dc=-3.0
V15 (14 0) vsource dc=-3.0
V16 (15 0) vsource dc=-3.0
V17 (16 0) vsource dc=-3.0
V18 (17 0) vsource dc=-3.0
V19 (18 0) vsource dc=-3.0
V20 (19 0) vsource dc=-3.0
V21 (20 0) vsource dc=-3.0
V22 (21 0) vsource dc=-3.0
V23 (22 0) vsource dc=-3.0
V24 (23 0) vsource dc=-3.0
V25 (24 0) vsource dc=-3.0
V26 (25 0) vsource dc=-3.0
V27 (26 0) vsource dc=-3.0
V28 (27 0) vsource dc=-3.0
V29 (28 0) vsource dc=-3.0
V30 (29 0) vsource dc=-3.0
V31 (30 0) vsource dc=-3.0
V32 (31 0) vsource dc=-3.0
V33 (32 0) vsource dc=-3.0
V34 (33 0) vsource dc=-3.0
V35 (34 0) vsource dc=-3.0
V36 (35 0) vsource dc=-3.0
V37 (36 0) vsource dc=-3.0
V38 (37 0) vsource dc=-3.0
V39 (38 0) vsource dc=-3.0
V40 (39 0) vsource dc=-3.0
V41 (40 0) vsource dc=-3.0
V42 (41 0) vsource dc=-3.0
V43 (42 0) vsource dc=-3.0
V44 (43 0) vsource dc=-3.0
V45 (44 0) vsource dc=-3.0
V46 (45 0) vsource dc=-3.0
V47 (46 0) vsource dc=-3.0
V48 (47 0) vsource dc=-3.0
V49 (48 0) vsource dc=-3.0
V50 (49 0) vsource dc=-3.0
V51 (50 0) vsource dc=-3.0
V52 (51 0) vsource dc=-3.0
V53 (52 0) vsource dc=-3.0
V54 (53 0) vsource dc=-3.0
V55 (54 0) vsource dc=-3.0
V56 (55 0) vsource dc=-3.0
V57 (56 0) vsource dc=-3.0
V58 (57 0) vsource dc=-3.0
V59 (58 0) vsource dc=-3.0
V60 (59 0) vsource dc=-3.0
V61 (60 0) vsource dc=-3.0
V62 (61 0) vsource dc=-3.0
V63 (62 0) vsource dc=-3.0
V64 (63 0) vsource dc=-3.0
V65 (64 0) vsource dc=-3.0
V66 (65 0) vsource dc=-3.0
V67 (66 0) vsource dc=-3.0
V68 (67 0) vsource dc=-3.0
V69 (68 0) vsource dc=-3.0
V70 (69 0) vsource dc=-3.0
V71 (70 0) vsource dc=-3.0
V72 (71 0) vsource dc=-3.0
V73 (72 0) vsource dc=-3.0
V74 (73 0) vsource dc=-3.0
V75 (74 0) vsource dc=-3.0
V76 (75 0) vsource dc=-3.0
V77 (76 0) vsource dc=-3.0
V78 (77 0) vsource dc=-3.0
V79 (78 0) vsource dc=-3.0
V80 (79 0) vsource dc=-3.0
V81 (80 0) vsource dc=-3.0
V82 (81 0) vsource dc=-3.0
V83 (82 0) vsource dc=-3.0
V84 (83 0) vsource dc=-3.0
V85 (84 0) vsource dc=-3.0
V86 (85 0) vsource dc=-3.0
V87 (86 0) vsource dc=-3.0
V88 (87 0) vsource dc=-3.0
V89 (88 0) vsource dc=-3.0
V90 (89 0) vsource dc=-3.0
V91 (90 0) vsource dc=-3.0
V92 (91 0) vsource dc=-3.0
V93 (92 0) vsource dc=-3.0
V94 (93 0) vsource dc=-3.0
V95 (94 0) vsource dc=-3.0
V96 (95 0) vsource dc=-3.0
V97 (96 0) vsource dc=-3.0
V98 (97 0) vsource dc=-3.0
V99 (98 0) vsource dc=-3.0
V100 (99 0) vsource dc=-3.0
V101 (100 0) vsource dc=-3.0
V102 (101 0) vsource dc=-3.0
V103 (102 0) vsource dc=-3.0
V104 (103 0) vsource dc=-3.0
V105 (104 0) vsource dc=-3.0
V106 (105 0) vsource dc=-3.0
V107 (106 0) vsource dc=-3.0
V108 (107 0) vsource dc=-3.0
V109 (108 0) vsource dc=-3.0
V110 (109 0) vsource dc=-3.0
V111 (110 0) vsource dc=-3.0
V112 (111 0) vsource dc=-3.0
V113 (112 0) vsource dc=-3.0
V114 (113 0) vsource dc=-3.0
V115 (114 0) vsource dc=-3.0
V116 (115 0) vsource dc=-3.0
V117 (116 0) vsource dc=-3.0
V118 (117 0) vsource dc=-3.0
V119 (118 0) vsource dc=-3.0
V120 (119 0) vsource dc=-3.0
V121 (120 0) vsource dc=-3.0
V122 (121 0) vsource dc=-3.0
V123 (122 0) vsource dc=-3.0
V124 (123 0) vsource dc=-3.0
V125 (124 0) vsource dc=-3.0
V126 (125 0) vsource dc=-3.0
V127 (126 0) vsource dc=-3.0
V128 (127 0) vsource dc=-3.0
V129 (128 0) vsource dc=-3.0
V130 (129 0) vsource dc=-3.0
V131 (130 0) vsource dc=-3.0
V132 (131 0) vsource dc=-3.0
V133 (132 0) vsource dc=-3.0
V134 (133 0) vsource dc=-3.0
V135 (134 0) vsource dc=-3.0
V136 (135 0) vsource dc=-3.0
V137 (136 0) vsource dc=-3.0
V138 (137 0) vsource dc=-3.0
V139 (138 0) vsource dc=-3.0
V140 (139 0) vsource dc=-3.0
V141 (140 0) vsource dc=-3.0
V142 (141 0) vsource dc=-3.0
V143 (142 0) vsource dc=-3.0
V144 (143 0) vsource dc=-3.0
V145 (144 0) vsource dc=-3.0
V146 (145 0) vsource dc=-3.0
V147 (146 0) vsource dc=-3.0
V148 (147 0) vsource dc=-3.0
V149 (148 0) vsource dc=-3.0
V150 (149 0) vsource dc=-3.0
V151 (150 0) vsource dc=-3.0
V152 (151 0) vsource dc=-3.0
V153 (152 0) vsource dc=-3.0
V154 (153 0) vsource dc=-3.0
V155 (154 0) vsource dc=-3.0
V156 (155 0) vsource dc=-3.0
V157 (156 0) vsource dc=-3.0
V158 (157 0) vsource dc=-3.0
V159 (158 0) vsource dc=-3.0
V160 (159 0) vsource dc=-3.0
V161 (160 0) vsource dc=-3.0
V162 (161 0) vsource dc=-3.0
V163 (162 0) vsource dc=-3.0
V164 (163 0) vsource dc=-3.0
V165 (164 0) vsource dc=-3.0
V166 (165 0) vsource dc=-3.0
V167 (166 0) vsource dc=-3.0
V168 (167 0) vsource dc=-3.0
V169 (168 0) vsource dc=-3.0
V170 (169 0) vsource dc=-3.0
V171 (170 0) vsource dc=-3.0
V172 (171 0) vsource dc=-3.0
V173 (172 0) vsource dc=-3.0
V174 (173 0) vsource dc=-3.0
V175 (174 0) vsource dc=-3.0
V176 (175 0) vsource dc=-1.029325513196481
V177 (176 0) vsource dc=2.219941348973607
V178 (177 0) vsource dc=-1.4281524926686218
V179 (178 0) vsource dc=-3.0
V180 (179 0) vsource dc=-3.0
V181 (180 0) vsource dc=-3.0
V182 (181 0) vsource dc=-3.0
V183 (182 0) vsource dc=-3.0
V184 (183 0) vsource dc=-3.0
V185 (184 0) vsource dc=-3.0
V186 (185 0) vsource dc=-3.0
V187 (186 0) vsource dc=-3.0
V188 (187 0) vsource dc=-3.0
V189 (188 0) vsource dc=-3.0
V190 (189 0) vsource dc=-3.0
V191 (190 0) vsource dc=-3.0
V192 (191 0) vsource dc=-3.0
V193 (192 0) vsource dc=-3.0
V194 (193 0) vsource dc=-3.0
V195 (194 0) vsource dc=-3.0
V196 (195 0) vsource dc=-3.0
V197 (196 0) vsource dc=-3.0
V198 (197 0) vsource dc=-3.0
V199 (198 0) vsource dc=-3.0
V200 (199 0) vsource dc=-3.0
V201 (200 0) vsource dc=-3.0
V202 (201 0) vsource dc=-3.0
V203 (202 0) vsource dc=-3.0
V204 (203 0) vsource dc=1.351906158357771
V205 (204 0) vsource dc=2.970674486803519
V206 (205 0) vsource dc=-0.3196480938416424
V207 (206 0) vsource dc=-3.0
V208 (207 0) vsource dc=-3.0
V209 (208 0) vsource dc=-3.0
V210 (209 0) vsource dc=-3.0
V211 (210 0) vsource dc=-3.0
V212 (211 0) vsource dc=-3.0
V213 (212 0) vsource dc=-3.0
V214 (213 0) vsource dc=-3.0
V215 (214 0) vsource dc=-3.0
V216 (215 0) vsource dc=-3.0
V217 (216 0) vsource dc=-3.0
V218 (217 0) vsource dc=-3.0
V219 (218 0) vsource dc=-3.0
V220 (219 0) vsource dc=-3.0
V221 (220 0) vsource dc=-3.0
V222 (221 0) vsource dc=-3.0
V223 (222 0) vsource dc=-3.0
V224 (223 0) vsource dc=-3.0
V225 (224 0) vsource dc=-3.0
V226 (225 0) vsource dc=-3.0
V227 (226 0) vsource dc=-3.0
V228 (227 0) vsource dc=-3.0
V229 (228 0) vsource dc=-3.0
V230 (229 0) vsource dc=-3.0
V231 (230 0) vsource dc=-3.0
V232 (231 0) vsource dc=0.7360703812316718
V233 (232 0) vsource dc=2.970674486803519
V234 (233 0) vsource dc=-1.3108504398826977
V235 (234 0) vsource dc=-3.0
V236 (235 0) vsource dc=-3.0
V237 (236 0) vsource dc=-3.0
V238 (237 0) vsource dc=-3.0
V239 (238 0) vsource dc=-3.0
V240 (239 0) vsource dc=-3.0
V241 (240 0) vsource dc=-3.0
V242 (241 0) vsource dc=-3.0
V243 (242 0) vsource dc=-3.0
V244 (243 0) vsource dc=-3.0
V245 (244 0) vsource dc=-3.0
V246 (245 0) vsource dc=-3.0
V247 (246 0) vsource dc=-3.0
V248 (247 0) vsource dc=-3.0
V249 (248 0) vsource dc=-3.0
V250 (249 0) vsource dc=-3.0
V251 (250 0) vsource dc=-3.0
V252 (251 0) vsource dc=-3.0
V253 (252 0) vsource dc=-3.0
V254 (253 0) vsource dc=-3.0
V255 (254 0) vsource dc=-3.0
V256 (255 0) vsource dc=-3.0
V257 (256 0) vsource dc=-3.0
V258 (257 0) vsource dc=-3.0
V259 (258 0) vsource dc=-3.0
V260 (259 0) vsource dc=0.548387096774194
V261 (260 0) vsource dc=2.970674486803519
V262 (261 0) vsource dc=-0.3196480938416424
V263 (262 0) vsource dc=-3.0
V264 (263 0) vsource dc=-3.0
V265 (264 0) vsource dc=-3.0
V266 (265 0) vsource dc=-3.0
V267 (266 0) vsource dc=-3.0
V268 (267 0) vsource dc=-3.0
V269 (268 0) vsource dc=-3.0
V270 (269 0) vsource dc=-3.0
V271 (270 0) vsource dc=-3.0
V272 (271 0) vsource dc=-3.0
V273 (272 0) vsource dc=-3.0
V274 (273 0) vsource dc=-3.0
V275 (274 0) vsource dc=-3.0
V276 (275 0) vsource dc=-3.0
V277 (276 0) vsource dc=-3.0
V278 (277 0) vsource dc=-3.0
V279 (278 0) vsource dc=-3.0
V280 (279 0) vsource dc=-3.0
V281 (280 0) vsource dc=-3.0
V282 (281 0) vsource dc=-3.0
V283 (282 0) vsource dc=-3.0
V284 (283 0) vsource dc=-3.0
V285 (284 0) vsource dc=-3.0
V286 (285 0) vsource dc=-3.0
V287 (286 0) vsource dc=-3.0
V288 (287 0) vsource dc=-1.5923753665689149
V289 (288 0) vsource dc=2.970674486803519
V290 (289 0) vsource dc=0.8299120234604107
V291 (290 0) vsource dc=-3.0
V292 (291 0) vsource dc=-3.0
V293 (292 0) vsource dc=-3.0
V294 (293 0) vsource dc=-3.0
V295 (294 0) vsource dc=-3.0
V296 (295 0) vsource dc=-3.0
V297 (296 0) vsource dc=-3.0
V298 (297 0) vsource dc=-3.0
V299 (298 0) vsource dc=-3.0
V300 (299 0) vsource dc=-3.0
V301 (300 0) vsource dc=-3.0
V302 (301 0) vsource dc=-3.0
V303 (302 0) vsource dc=-3.0
V304 (303 0) vsource dc=-3.0
V305 (304 0) vsource dc=-1.5689149560117301
V306 (305 0) vsource dc=-0.15542521994134884
V307 (306 0) vsource dc=-0.15542521994134884
V308 (307 0) vsource dc=-3.0
V309 (308 0) vsource dc=-3.0
V310 (309 0) vsource dc=-3.0
V311 (310 0) vsource dc=-3.0
V312 (311 0) vsource dc=-3.0
V313 (312 0) vsource dc=-3.0
V314 (313 0) vsource dc=-3.0
V315 (314 0) vsource dc=-3.0
V316 (315 0) vsource dc=-2.155425219941349
V317 (316 0) vsource dc=2.6656891495601176
V318 (317 0) vsource dc=2.3372434017595305
V319 (318 0) vsource dc=-2.601173020527859
V320 (319 0) vsource dc=-3.0
V321 (320 0) vsource dc=-3.0
V322 (321 0) vsource dc=-3.0
V323 (322 0) vsource dc=-3.0
V324 (323 0) vsource dc=-3.0
V325 (324 0) vsource dc=-3.0
V326 (325 0) vsource dc=-3.0
V327 (326 0) vsource dc=-3.0
V328 (327 0) vsource dc=-3.0
V329 (328 0) vsource dc=-3.0
V330 (329 0) vsource dc=-3.0
V331 (330 0) vsource dc=-2.2727272727272725
V332 (331 0) vsource dc=0.12609970674486792
V333 (332 0) vsource dc=2.6891495601173023
V334 (333 0) vsource dc=2.970674486803519
V335 (334 0) vsource dc=2.970674486803519
V336 (335 0) vsource dc=-3.0
V337 (336 0) vsource dc=-3.0
V338 (337 0) vsource dc=-3.0
V339 (338 0) vsource dc=-3.0
V340 (339 0) vsource dc=-3.0
V341 (340 0) vsource dc=-3.0
V342 (341 0) vsource dc=-3.0
V343 (342 0) vsource dc=-3.0
V344 (343 0) vsource dc=-3.0
V345 (344 0) vsource dc=1.6568914956011724
V346 (345 0) vsource dc=2.970674486803519
V347 (346 0) vsource dc=-1.4516129032258065
V348 (347 0) vsource dc=-3.0
V349 (348 0) vsource dc=-3.0
V350 (349 0) vsource dc=-3.0
V351 (350 0) vsource dc=-3.0
V352 (351 0) vsource dc=-3.0
V353 (352 0) vsource dc=-3.0
V354 (353 0) vsource dc=-3.0
V355 (354 0) vsource dc=-3.0
V356 (355 0) vsource dc=-3.0
V357 (356 0) vsource dc=-2.929618768328446
V358 (357 0) vsource dc=-2.1085043988269794
V359 (358 0) vsource dc=2.2668621700879763
V360 (359 0) vsource dc=2.970674486803519
V361 (360 0) vsource dc=2.970674486803519
V362 (361 0) vsource dc=2.970674486803519
V363 (362 0) vsource dc=1.868035190615835
V364 (363 0) vsource dc=-3.0
V365 (364 0) vsource dc=-3.0
V366 (365 0) vsource dc=-3.0
V367 (366 0) vsource dc=-3.0
V368 (367 0) vsource dc=-3.0
V369 (368 0) vsource dc=-3.0
V370 (369 0) vsource dc=-3.0
V371 (370 0) vsource dc=-3.0
V372 (371 0) vsource dc=-3.0
V373 (372 0) vsource dc=1.6568914956011724
V374 (373 0) vsource dc=2.290322580645161
V375 (374 0) vsource dc=-2.6715542521994133
V376 (375 0) vsource dc=-3.0
V377 (376 0) vsource dc=-3.0
V378 (377 0) vsource dc=-3.0
V379 (378 0) vsource dc=-3.0
V380 (379 0) vsource dc=-3.0
V381 (380 0) vsource dc=-3.0
V382 (381 0) vsource dc=-3.0
V383 (382 0) vsource dc=-3.0
V384 (383 0) vsource dc=-2.5542521994134897
V385 (384 0) vsource dc=1.774193548387096
V386 (385 0) vsource dc=2.970674486803519
V387 (386 0) vsource dc=2.970674486803519
V388 (387 0) vsource dc=2.970674486803519
V389 (388 0) vsource dc=2.970674486803519
V390 (389 0) vsource dc=2.1495601173020527
V391 (390 0) vsource dc=-2.5777126099706744
V392 (391 0) vsource dc=-3.0
V393 (392 0) vsource dc=-3.0
V394 (393 0) vsource dc=-3.0
V395 (394 0) vsource dc=-3.0
V396 (395 0) vsource dc=-3.0
V397 (396 0) vsource dc=-3.0
V398 (397 0) vsource dc=-3.0
V399 (398 0) vsource dc=-3.0
V400 (399 0) vsource dc=-3.0
V401 (400 0) vsource dc=1.6568914956011724
V402 (401 0) vsource dc=2.970674486803519
V403 (402 0) vsource dc=-1.4281524926686218
V404 (403 0) vsource dc=-3.0
V405 (404 0) vsource dc=-3.0
V406 (405 0) vsource dc=-3.0
V407 (406 0) vsource dc=-3.0
V408 (407 0) vsource dc=-3.0
V409 (408 0) vsource dc=-3.0
V410 (409 0) vsource dc=-3.0
V411 (410 0) vsource dc=-1.2404692082111435
V412 (411 0) vsource dc=2.196480938416422
V413 (412 0) vsource dc=2.970674486803519
V414 (413 0) vsource dc=2.970674486803519
V415 (414 0) vsource dc=-0.29618768328445766
V416 (415 0) vsource dc=-1.780058651026393
V417 (416 0) vsource dc=-1.780058651026393
V418 (417 0) vsource dc=-2.06158357771261
V419 (418 0) vsource dc=-3.0
V420 (419 0) vsource dc=-3.0
V421 (420 0) vsource dc=-3.0
V422 (421 0) vsource dc=-3.0
V423 (422 0) vsource dc=-3.0
V424 (423 0) vsource dc=-3.0
V425 (424 0) vsource dc=-3.0
V426 (425 0) vsource dc=-3.0
V427 (426 0) vsource dc=-3.0
V428 (427 0) vsource dc=-3.0
V429 (428 0) vsource dc=1.6568914956011724
V430 (429 0) vsource dc=2.970674486803519
V431 (430 0) vsource dc=-1.4281524926686218
V432 (431 0) vsource dc=-3.0
V433 (432 0) vsource dc=-3.0
V434 (433 0) vsource dc=-3.0
V435 (434 0) vsource dc=-3.0
V436 (435 0) vsource dc=-3.0
V437 (436 0) vsource dc=-2.7888563049853374
V438 (437 0) vsource dc=-0.038123167155425186
V439 (438 0) vsource dc=2.900293255131965
V440 (439 0) vsource dc=2.970674486803519
V441 (440 0) vsource dc=2.1495601173020527
V442 (441 0) vsource dc=-1.193548387096774
V443 (442 0) vsource dc=-2.9765395894428153
V444 (443 0) vsource dc=-3.0
V445 (444 0) vsource dc=-3.0
V446 (445 0) vsource dc=-3.0
V447 (446 0) vsource dc=-3.0
V448 (447 0) vsource dc=-3.0
V449 (448 0) vsource dc=-3.0
V450 (449 0) vsource dc=-3.0
V451 (450 0) vsource dc=-3.0
V452 (451 0) vsource dc=-3.0
V453 (452 0) vsource dc=-3.0
V454 (453 0) vsource dc=-3.0
V455 (454 0) vsource dc=-3.0
V456 (455 0) vsource dc=-3.0
V457 (456 0) vsource dc=1.6568914956011724
V458 (457 0) vsource dc=2.970674486803519
V459 (458 0) vsource dc=-1.4281524926686218
V460 (459 0) vsource dc=-3.0
V461 (460 0) vsource dc=-3.0
V462 (461 0) vsource dc=-3.0
V463 (462 0) vsource dc=-1.6158357771260998
V464 (463 0) vsource dc=0.12609970674486792
V465 (464 0) vsource dc=1.8211143695014655
V466 (465 0) vsource dc=2.970674486803519
V467 (466 0) vsource dc=2.642228739002933
V468 (467 0) vsource dc=0.9002932551319649
V469 (468 0) vsource dc=-2.1788856304985336
V470 (469 0) vsource dc=-3.0
V471 (470 0) vsource dc=-3.0
V472 (471 0) vsource dc=-3.0
V473 (472 0) vsource dc=-3.0
V474 (473 0) vsource dc=-3.0
V475 (474 0) vsource dc=-3.0
V476 (475 0) vsource dc=-3.0
V477 (476 0) vsource dc=-3.0
V478 (477 0) vsource dc=-3.0
V479 (478 0) vsource dc=-3.0
V480 (479 0) vsource dc=-3.0
V481 (480 0) vsource dc=-3.0
V482 (481 0) vsource dc=-3.0
V483 (482 0) vsource dc=-3.0
V484 (483 0) vsource dc=-3.0
V485 (484 0) vsource dc=1.6568914956011724
V486 (485 0) vsource dc=2.87683284457478
V487 (486 0) vsource dc=-1.6158357771260998
V488 (487 0) vsource dc=-3.0
V489 (488 0) vsource dc=-2.4838709677419355
V490 (489 0) vsource dc=0.032258064516129004
V491 (490 0) vsource dc=2.8533724340175954
V492 (491 0) vsource dc=2.970674486803519
V493 (492 0) vsource dc=2.8299120234604107
V494 (493 0) vsource dc=1.2815249266862168
V495 (494 0) vsource dc=-1.6627565982404693
V496 (495 0) vsource dc=-3.0
V497 (496 0) vsource dc=-3.0
V498 (497 0) vsource dc=-3.0
V499 (498 0) vsource dc=-3.0
V500 (499 0) vsource dc=-3.0
V501 (500 0) vsource dc=-3.0
V502 (501 0) vsource dc=-3.0
V503 (502 0) vsource dc=-3.0
V504 (503 0) vsource dc=-3.0
V505 (504 0) vsource dc=-3.0
V506 (505 0) vsource dc=-3.0
V507 (506 0) vsource dc=-3.0
V508 (507 0) vsource dc=-3.0
V509 (508 0) vsource dc=-3.0
V510 (509 0) vsource dc=-3.0
V511 (510 0) vsource dc=-3.0
V512 (511 0) vsource dc=-3.0
V513 (512 0) vsource dc=1.6568914956011724
V514 (513 0) vsource dc=2.3841642228739
V515 (514 0) vsource dc=-2.5073313782991202
V516 (515 0) vsource dc=-1.0527859237536656
V517 (516 0) vsource dc=2.478005865102639
V518 (517 0) vsource dc=2.970674486803519
V519 (518 0) vsource dc=2.970674486803519
V520 (519 0) vsource dc=1.3988269794721404
V521 (520 0) vsource dc=-1.6392961876832846
V522 (521 0) vsource dc=-3.0
V523 (522 0) vsource dc=-3.0
V524 (523 0) vsource dc=-3.0
V525 (524 0) vsource dc=-3.0
V526 (525 0) vsource dc=-3.0
V527 (526 0) vsource dc=-3.0
V528 (527 0) vsource dc=-3.0
V529 (528 0) vsource dc=-3.0
V530 (529 0) vsource dc=-3.0
V531 (530 0) vsource dc=-3.0
V532 (531 0) vsource dc=-3.0
V533 (532 0) vsource dc=-3.0
V534 (533 0) vsource dc=-3.0
V535 (534 0) vsource dc=-3.0
V536 (535 0) vsource dc=-3.0
V537 (536 0) vsource dc=-3.0
V538 (537 0) vsource dc=-3.0
V539 (538 0) vsource dc=-3.0
V540 (539 0) vsource dc=-3.0
V541 (540 0) vsource dc=1.6568914956011724
V542 (541 0) vsource dc=2.970674486803519
V543 (542 0) vsource dc=2.548387096774193
V544 (543 0) vsource dc=2.9472140762463344
V545 (544 0) vsource dc=3.0
V546 (545 0) vsource dc=2.5953079178885625
V547 (546 0) vsource dc=-1.5454545454545454
V548 (547 0) vsource dc=-2.8826979472140764
V549 (548 0) vsource dc=-3.0
V550 (549 0) vsource dc=-3.0
V551 (550 0) vsource dc=-3.0
V552 (551 0) vsource dc=-3.0
V553 (552 0) vsource dc=-3.0
V554 (553 0) vsource dc=-3.0
V555 (554 0) vsource dc=-3.0
V556 (555 0) vsource dc=-3.0
V557 (556 0) vsource dc=-3.0
V558 (557 0) vsource dc=-3.0
V559 (558 0) vsource dc=-3.0
V560 (559 0) vsource dc=-3.0
V561 (560 0) vsource dc=-3.0
V562 (561 0) vsource dc=-3.0
V563 (562 0) vsource dc=-3.0
V564 (563 0) vsource dc=-3.0
V565 (564 0) vsource dc=-3.0
V566 (565 0) vsource dc=-3.0
V567 (566 0) vsource dc=-3.0
V568 (567 0) vsource dc=-3.0
V569 (568 0) vsource dc=1.0
V570 (569 0) vsource dc=2.970674486803519
V571 (570 0) vsource dc=2.970674486803519
V572 (571 0) vsource dc=1.9149560117302054
V573 (572 0) vsource dc=-1.0527859237536656
V574 (573 0) vsource dc=-1.967741935483871
V575 (574 0) vsource dc=-3.0
V576 (575 0) vsource dc=-3.0
V577 (576 0) vsource dc=-3.0
V578 (577 0) vsource dc=-3.0
V579 (578 0) vsource dc=-3.0
V580 (579 0) vsource dc=-3.0
V581 (580 0) vsource dc=-3.0
V582 (581 0) vsource dc=-3.0
V583 (582 0) vsource dc=-3.0
V584 (583 0) vsource dc=-3.0
V585 (584 0) vsource dc=-3.0
V586 (585 0) vsource dc=-3.0
V587 (586 0) vsource dc=-3.0
V588 (587 0) vsource dc=-3.0
V589 (588 0) vsource dc=-3.0
V590 (589 0) vsource dc=-3.0
V591 (590 0) vsource dc=-3.0
V592 (591 0) vsource dc=-3.0
V593 (592 0) vsource dc=-3.0
V594 (593 0) vsource dc=-3.0
V595 (594 0) vsource dc=-3.0
V596 (595 0) vsource dc=-3.0
V597 (596 0) vsource dc=-1.780058651026393
V598 (597 0) vsource dc=0.29032258064516103
V599 (598 0) vsource dc=-0.5073313782991202
V600 (599 0) vsource dc=-2.5777126099706744
V601 (600 0) vsource dc=-3.0
V602 (601 0) vsource dc=-3.0
V603 (602 0) vsource dc=-3.0
V604 (603 0) vsource dc=-3.0
V605 (604 0) vsource dc=-3.0
V606 (605 0) vsource dc=-3.0
V607 (606 0) vsource dc=-3.0
V608 (607 0) vsource dc=-3.0
V609 (608 0) vsource dc=-3.0
V610 (609 0) vsource dc=-3.0
V611 (610 0) vsource dc=-3.0
V612 (611 0) vsource dc=-3.0
V613 (612 0) vsource dc=-3.0
V614 (613 0) vsource dc=-3.0
V615 (614 0) vsource dc=-3.0
V616 (615 0) vsource dc=-3.0
V617 (616 0) vsource dc=-3.0
V618 (617 0) vsource dc=-3.0
V619 (618 0) vsource dc=-3.0
V620 (619 0) vsource dc=-3.0
V621 (620 0) vsource dc=-3.0
V622 (621 0) vsource dc=-3.0
V623 (622 0) vsource dc=-3.0
V624 (623 0) vsource dc=-3.0
V625 (624 0) vsource dc=-3.0
V626 (625 0) vsource dc=-3.0
V627 (626 0) vsource dc=-3.0
V628 (627 0) vsource dc=-3.0
V629 (628 0) vsource dc=-3.0
V630 (629 0) vsource dc=-3.0
V631 (630 0) vsource dc=-3.0
V632 (631 0) vsource dc=-3.0
V633 (632 0) vsource dc=-3.0
V634 (633 0) vsource dc=-3.0
V635 (634 0) vsource dc=-3.0
V636 (635 0) vsource dc=-3.0
V637 (636 0) vsource dc=-3.0
V638 (637 0) vsource dc=-3.0
V639 (638 0) vsource dc=-3.0
V640 (639 0) vsource dc=-3.0
V641 (640 0) vsource dc=-3.0
V642 (641 0) vsource dc=-3.0
V643 (642 0) vsource dc=-3.0
V644 (643 0) vsource dc=-3.0
V645 (644 0) vsource dc=-3.0
V646 (645 0) vsource dc=-3.0
V647 (646 0) vsource dc=-3.0
V648 (647 0) vsource dc=-3.0
V649 (648 0) vsource dc=-3.0
V650 (649 0) vsource dc=-3.0
V651 (650 0) vsource dc=-3.0
V652 (651 0) vsource dc=-3.0
V653 (652 0) vsource dc=-3.0
V654 (653 0) vsource dc=-3.0
V655 (654 0) vsource dc=-3.0
V656 (655 0) vsource dc=-3.0
V657 (656 0) vsource dc=-3.0
V658 (657 0) vsource dc=-3.0
V659 (658 0) vsource dc=-3.0
V660 (659 0) vsource dc=-3.0
V661 (660 0) vsource dc=-3.0
V662 (661 0) vsource dc=-3.0
V663 (662 0) vsource dc=-3.0
V664 (663 0) vsource dc=-3.0
V665 (664 0) vsource dc=-3.0
V666 (665 0) vsource dc=-3.0
V667 (666 0) vsource dc=-3.0
V668 (667 0) vsource dc=-3.0
V669 (668 0) vsource dc=-3.0
V670 (669 0) vsource dc=-3.0
V671 (670 0) vsource dc=-3.0
V672 (671 0) vsource dc=-3.0
V673 (672 0) vsource dc=-3.0
V674 (673 0) vsource dc=-3.0
V675 (674 0) vsource dc=-3.0
V676 (675 0) vsource dc=-3.0
V677 (676 0) vsource dc=-3.0
V678 (677 0) vsource dc=-3.0
V679 (678 0) vsource dc=-3.0
V680 (679 0) vsource dc=-3.0
V681 (680 0) vsource dc=-3.0
V682 (681 0) vsource dc=-3.0
V683 (682 0) vsource dc=-3.0
V684 (683 0) vsource dc=-3.0
V685 (684 0) vsource dc=-3.0
V686 (685 0) vsource dc=-3.0
V687 (686 0) vsource dc=-3.0
V688 (687 0) vsource dc=-3.0
V689 (688 0) vsource dc=-3.0
V690 (689 0) vsource dc=-3.0
V691 (690 0) vsource dc=-3.0
V692 (691 0) vsource dc=-3.0
V693 (692 0) vsource dc=-3.0
V694 (693 0) vsource dc=-3.0
V695 (694 0) vsource dc=-3.0
V696 (695 0) vsource dc=-3.0
V697 (696 0) vsource dc=-3.0
V698 (697 0) vsource dc=-3.0
V699 (698 0) vsource dc=-3.0
V700 (699 0) vsource dc=-3.0
V701 (700 0) vsource dc=-3.0
V702 (701 0) vsource dc=-3.0
V703 (702 0) vsource dc=-3.0
V704 (703 0) vsource dc=-3.0
V705 (704 0) vsource dc=-3.0
V706 (705 0) vsource dc=-3.0
V707 (706 0) vsource dc=-3.0
V708 (707 0) vsource dc=-3.0
V709 (708 0) vsource dc=-3.0
V710 (709 0) vsource dc=-3.0
V711 (710 0) vsource dc=-3.0
V712 (711 0) vsource dc=-3.0
V713 (712 0) vsource dc=-3.0
V714 (713 0) vsource dc=-3.0
V715 (714 0) vsource dc=-3.0
V716 (715 0) vsource dc=-3.0
V717 (716 0) vsource dc=-3.0
V718 (717 0) vsource dc=-3.0
V719 (718 0) vsource dc=-3.0
V720 (719 0) vsource dc=-3.0
V721 (720 0) vsource dc=-3.0
V722 (721 0) vsource dc=-3.0
V723 (722 0) vsource dc=-3.0
V724 (723 0) vsource dc=-3.0
V725 (724 0) vsource dc=-3.0
V726 (725 0) vsource dc=-3.0
V727 (726 0) vsource dc=-3.0
V728 (727 0) vsource dc=-3.0
V729 (728 0) vsource dc=-3.0
V730 (729 0) vsource dc=-3.0
V731 (730 0) vsource dc=-3.0
V732 (731 0) vsource dc=-3.0
V733 (732 0) vsource dc=-3.0
V734 (733 0) vsource dc=-3.0
V735 (734 0) vsource dc=-3.0
V736 (735 0) vsource dc=-3.0
V737 (736 0) vsource dc=-3.0
V738 (737 0) vsource dc=-3.0
V739 (738 0) vsource dc=-3.0
V740 (739 0) vsource dc=-3.0
V741 (740 0) vsource dc=-3.0
V742 (741 0) vsource dc=-3.0
V743 (742 0) vsource dc=-3.0
V744 (743 0) vsource dc=-3.0
V745 (744 0) vsource dc=-3.0
V746 (745 0) vsource dc=-3.0
V747 (746 0) vsource dc=-3.0
V748 (747 0) vsource dc=-3.0
V749 (748 0) vsource dc=-3.0
V750 (749 0) vsource dc=-3.0
V751 (750 0) vsource dc=-3.0
V752 (751 0) vsource dc=-3.0
V753 (752 0) vsource dc=-3.0
V754 (753 0) vsource dc=-3.0
V755 (754 0) vsource dc=-3.0
V756 (755 0) vsource dc=-3.0
V757 (756 0) vsource dc=-3.0
V758 (757 0) vsource dc=-3.0
V759 (758 0) vsource dc=-3.0
V760 (759 0) vsource dc=-3.0
V761 (760 0) vsource dc=-3.0
V762 (761 0) vsource dc=-3.0
V763 (762 0) vsource dc=-3.0
V764 (763 0) vsource dc=-3.0
V765 (764 0) vsource dc=-3.0
V766 (765 0) vsource dc=-3.0
V767 (766 0) vsource dc=-3.0
V768 (767 0) vsource dc=-3.0
V769 (768 0) vsource dc=-3.0
V770 (769 0) vsource dc=-3.0
V771 (770 0) vsource dc=-3.0
V772 (771 0) vsource dc=-3.0
V773 (772 0) vsource dc=-3.0
V774 (773 0) vsource dc=-3.0
V775 (774 0) vsource dc=-3.0
V776 (775 0) vsource dc=-3.0
V777 (776 0) vsource dc=-3.0
V778 (777 0) vsource dc=-3.0
V779 (778 0) vsource dc=-3.0
V780 (779 0) vsource dc=-3.0
V781 (780 0) vsource dc=-3.0
V782 (781 0) vsource dc=-3.0
V783 (782 0) vsource dc=-3.0
V784 (783 0) vsource dc=-3.0
M1 (IN_000 COL_000) resistor r=998928.0325523573
M2 (IN_000 COL_001) resistor r=998501.5190677559
M3 (IN_000 COL_002) resistor r=999476.9009281897
M4 (IN_000 COL_003) resistor r=998579.023589989
M5 (IN_000 COL_004) resistor r=998767.2155040159
M6 (IN_000 COL_005) resistor r=997705.6264008394
M7 (IN_000 COL_006) resistor r=997534.1848062013
M8 (IN_000 COL_007) resistor r=997678.9942416655
M9 (IN_000 COL_008) resistor r=997842.229265778
M10 (IN_000 COL_009) resistor r=998538.2350629792
M11 (IN_000 COL_010) resistor r=997748.6854770442
M12 (IN_000 COL_011) resistor r=998644.4105555656
M13 (IN_000 COL_012) resistor r=998906.8515784532
M14 (IN_000 COL_013) resistor r=999141.0781292871
M15 (IN_000 COL_014) resistor r=999640.8735973876
M16 (IN_000 COL_015) resistor r=998122.6278258165
M17 (IN_000 COL_016) resistor r=999495.8711843463
M18 (IN_000 COL_017) resistor r=998997.3657071289
M19 (IN_000 COL_018) resistor r=998224.2203895228
M20 (IN_000 COL_019) resistor r=997672.6023573122
M21 (IN_000 COL_020) resistor r=998541.3008152511
M22 (IN_000 COL_021) resistor r=998052.5717770349
M23 (IN_000 COL_022) resistor r=997569.8477889141
M24 (IN_000 COL_023) resistor r=998091.7362770056
M25 (IN_000 COL_024) resistor r=998435.9847076233
M26 (IN_000 COL_025) resistor r=999491.3635820181
M27 (IN_000 COL_026) resistor r=998685.639075837
M28 (IN_000 COL_027) resistor r=998940.4506094544
M29 (IN_000 COL_028) resistor r=999711.7792991436
M30 (IN_000 COL_029) resistor r=999885.2075208948
M31 (IN_000 COL_030) resistor r=999507.8533741207
M32 (IN_000 COL_031) resistor r=999390.9807277756
M33 (IN_000 COL_032) resistor r=999319.5078215055
M34 (IN_000 COL_033) resistor r=999577.0421445189
M35 (IN_000 COL_034) resistor r=999486.516041062
M36 (IN_000 COL_035) resistor r=998502.9547373615
M37 (IN_000 COL_036) resistor r=998243.8583341732
M38 (IN_000 COL_037) resistor r=999555.4203061878
M39 (IN_000 COL_038) resistor r=997613.8554728252
M40 (IN_000 COL_039) resistor r=998408.8545193246
M41 (IN_000 COL_040) resistor r=998737.1153674048
M42 (IN_000 COL_041) resistor r=999248.1867542843
M43 (IN_000 COL_042) resistor r=997942.5059733362
M44 (IN_000 COL_043) resistor r=998257.5246541215
M45 (IN_000 COL_044) resistor r=998083.310500129
M46 (IN_000 COL_045) resistor r=997847.146311078
M47 (IN_000 COL_046) resistor r=997962.3193809193
M48 (IN_000 COL_047) resistor r=998472.4242075771
M49 (IN_000 COL_048) resistor r=998169.8611035172
M50 (IN_000 COL_049) resistor r=999981.2901787094
M51 (IN_000 COL_050) resistor r=999872.534503796
M52 (IN_000 COL_051) resistor r=999040.0435707934
M53 (IN_000 COL_052) resistor r=998489.0209752069
M54 (IN_000 COL_053) resistor r=999072.2364315758
M55 (IN_000 COL_054) resistor r=999814.6668431659
M56 (IN_000 COL_055) resistor r=997906.5206511657
M57 (IN_000 COL_056) resistor r=999071.9792175122
M58 (IN_000 COL_057) resistor r=999670.572295451
M59 (IN_000 COL_058) resistor r=999043.2086381074
M60 (IN_000 COL_059) resistor r=999865.8006297316
M61 (IN_000 COL_060) resistor r=999246.2928638409
M62 (IN_000 COL_061) resistor r=999900.6409827758
M63 (IN_000 COL_062) resistor r=999690.2237372231
M64 (IN_000 COL_063) resistor r=998937.3145196927
M65 (IN_000 COL_064) resistor r=999565.619004041
M66 (IN_000 COL_065) resistor r=998660.0155466347
M67 (IN_000 COL_066) resistor r=998214.6249370128
M68 (IN_000 COL_067) resistor r=999435.9318499481
M69 (IN_000 COL_068) resistor r=999700.3727876574
M70 (IN_000 COL_069) resistor r=999841.7878331719
M71 (IN_000 COL_070) resistor r=999072.3776761185
M72 (IN_000 COL_071) resistor r=999124.422680201
M73 (IN_000 COL_072) resistor r=999074.1567135762
M74 (IN_000 COL_073) resistor r=998339.9359019309
M75 (IN_000 COL_074) resistor r=998305.2535543311
M76 (IN_000 COL_075) resistor r=998105.5384864297
M77 (IN_000 COL_076) resistor r=999731.3829978915
M78 (IN_000 COL_077) resistor r=998367.6905653137
M79 (IN_000 COL_078) resistor r=998142.7291462357
M80 (IN_000 COL_079) resistor r=999564.3488779727
M81 (IN_000 COL_080) resistor r=999143.9385854129
M82 (IN_000 COL_081) resistor r=997598.9775041029
M83 (IN_000 COL_082) resistor r=999724.5237812907